/*--------------------------------*- C++ -*----------------------------------*\
| =========                 |                                                 |
| \\      /  F ield         | OpenFOAM: The Open Source CFD Toolbox           |
|  \\    /   O peration     | Version:  v2012                                 |
|   \\  /    A nd           | Website:  www.openfoam.com                      |
|    \\/     M anipulation  |                                                 |
\*---------------------------------------------------------------------------*/
FoamFile
{
    version     2.0;
    format      ascii;
    class       dictionary;
    object      topoSetDict;
}

// * * * * * * * * * * * * * * * * * * * * * * * * * * * * * * * * * * * * * //

actions
(
    // Heater
    {
        name    heaterCellSet;
        type    cellSet;
        action  new;
        source  boxToCell;
        box     (-0.004 -100 -0.004) (0.004 0.0 0.004);
    }
    {
        name    heater;
        type    cellZoneSet;
        action  new;
        source  setToCellZone;
        set     heaterCellSet;
    }

    // topAir is all the other cells
    {
        name    topAirCellSet;
        type    cellSet;
        action  new;
        source  cellToCell;
        set     heaterCellSet;
    }
    {
        name    topAirCellSet;
        type    cellSet;
        action  invert;
    }
    {
        name    topAir;
        type    cellZoneSet;
        action  new;
        source  setToCellZone;
        set     topAirCellSet;
    }
);


// ************************************************************************* //
